3lcu_ligand

Created by X-TOOL on Fri Sep 26 17:34:48 2014
 46 48  0  0  0  0  0  0  0  0999 V2000
    8.5910   -1.9530   22.6830  N 0  3  0  4  0  4
    7.2210   -1.6910   23.0920  C 0  0  0  2  0  4
    6.4860   -1.0800   21.8900  C 0  0  0  3  0  4
    6.5040   -1.8810   20.5930  C 0  0  0  3  0  4
    5.6630   -1.0990   19.2250  S 0  0  0  1  0  2
    6.4850   -3.0010   23.5670  C 0  5  0  1  0  3
    7.0660   -4.0160   23.4090  O 0  0  0  1  0  1
    5.4390   -3.0710   23.9650  O 0  0  0  1  0  1
    6.9830   -0.2940   18.4840  C 0  0  0  3  0  4
    7.5630    1.0610   19.0580  C 0  0  0  2  0  4
    8.5240    1.4670   18.0950  O 0  0  0  1  0  2
    6.5660    2.1910   19.1530  C 0  0  0  2  0  4
    6.3970    2.5750   20.5210  O 0  0  0  2  0  2
    7.1960    3.3030   18.2080  C 0  0  0  2  0  4
    6.9130    4.6220   18.6460  O 0  0  0  2  0  2
    8.6550    2.8990   18.2460  C 0  0  0  2  0  4
    9.4850    3.3500   17.2920  N 0  0  0  1  0  3
    9.2390    3.3810   15.9280  C 0  0  0  2  0  3
   10.2390    3.8610   15.2320  N 0  0  0  1  0  2
   11.2080    4.1620   16.2290  C 0  0  0  1  0  3
   12.5130    4.7090   16.0240  C 0  0  0  1  0  3
   13.0230    5.0240   14.8290  N 0  0  0  3  0  3
   13.2230    4.8910   17.1920  N 0  0  0  1  0  2
   12.7320    4.5740   18.4310  C 0  0  0  2  0  3
   11.4770    4.0400   18.6380  N 0  0  0  1  0  2
   10.7790    3.8670   17.4810  C 0  0  0  1  0  3
    9.0240   -1.0920   22.3877  H 0  0  0  1  0  1
    8.5936   -2.6099   21.9184  H 0  0  0  1  0  1
    9.1055   -2.3388   23.4592  H 0  0  0  1  0  1
    7.2258   -0.9707   23.9234  H 0  0  0  1  0  1
    6.9433   -0.1012   21.6829  H 0  0  0  1  0  1
    5.4342   -0.9394   22.1796  H 0  0  0  1  0  1
    6.0223   -2.8516   20.7823  H 0  0  0  1  0  1
    7.5530   -2.0424   20.3039  H 0  0  0  1  0  1
    6.6749   -0.0839   17.4492  H 0  0  0  1  0  1
    7.8181   -1.0099   18.4798  H 0  0  0  1  0  1
    8.0196    0.8868   20.0435  H 0  0  0  1  0  1
    5.5872    1.8818   18.7576  H 0  0  0  1  0  1
    5.7689    3.2859   20.5739  H 0  0  0  1  0  1
    6.8068    3.2036   17.1840  H 0  0  0  1  0  1
    7.2671    4.7476   19.5185  H 0  0  0  1  0  1
    9.0841    3.1687   19.2223  H 0  0  0  1  0  1
    8.3068    3.0401   15.4799  H 0  0  0  1  0  1
   13.9735    5.4150   14.7616  H 0  0  0  1  0  1
   12.4654    4.8757   13.9758  H 0  0  0  1  0  1
   13.3629    4.7522   19.2943  H 0  0  0  1  0  1
  1  2  1  0  0  2
  2  3  1  0  0  2
  2  6  1  0  0  2
  3  4  1  0  0  2
  4  5  1  0  0  2
  5  9  1  0  0  2
  6  7  2  0  0  2
  6  8  2  0  0  2
  9 10  1  0  0  2
 10 11  1  0  0  1
 10 12  1  0  0  1
 11 16  1  0  0  1
 12 13  1  0  0  2
 12 14  1  0  0  1
 14 15  1  0  0  2
 14 16  1  0  0  1
 16 17  1  0  0  2
 17 18  1  0  0  1
 17 26  1  0  0  1
 18 19  2  0  0  1
 19 20  1  0  0  1
 20 21  4  0  0  1
 20 26  4  0  0  1
 21 22  1  0  0  2
 21 23  4  0  0  1
 23 24  4  0  0  1
 24 25  4  0  0  1
 25 26  4  0  0  1
  1 27  1  0  0  2
  1 28  1  0  0  2
  1 29  1  0  0  2
  2 30  1  0  0  2
  3 31  1  0  0  2
  3 32  1  0  0  2
  4 33  1  0  0  2
  4 34  1  0  0  2
  9 35  1  0  0  2
  9 36  1  0  0  2
 10 37  1  0  0  2
 12 38  1  0  0  2
 13 39  1  0  0  2
 14 40  1  0  0  2
 15 41  1  0  0  2
 16 42  1  0  0  2
 18 43  1  0  0  2
 22 44  1  0  0  2
 22 45  1  0  0  2
 24 46  1  0  0  2
M  END
> <MOLECULAR_FORMULA>
C14H20N6O5S

> <MOLECULAR_WEIGHT>
384.3

> <NUM_HB_ATOMS>
12 

> <NUM_ROTOR>
6  

> <XLOGP2>
-3.61

$$$$
