3fjz_ligand

Created by X-TOOL on Fri Sep 26 17:34:43 2014
 16 15  0  0  0  0  0  0  0  0999 V2000
   59.7700    7.8610   28.2300  C 0  0  0  3  0  4
   59.8430    7.9900   30.7410  C 0  0  0  3  0  4
   60.4190    8.8600   31.8480  C 0  5  0  1  0  3
   60.2120   10.2180   27.1920  O 0  0  0  1  0  1
   59.0840    8.4030   25.8560  O 0  0  0  1  0  1
   61.5470    8.3340   26.3530  O 0  0  0  1  0  1
   61.0100    9.9520   31.5290  O 0  0  0  1  0  1
   60.1690    8.7760   26.8160  P 0  0  0  1  0  4
   60.2760    8.4520   33.0020  O 0  0  0  1  0  1
   60.1130    8.5870   29.4410  N 0  3  0  3  0  4
   60.3255    6.9118   28.2115  H 0  0  0  1  0  1
   58.6897    7.6537   28.2300  H 0  0  0  1  0  1
   58.7557    7.8978   30.8798  H 0  0  0  1  0  1
   60.3043    6.9924   30.7856  H 0  0  0  1  0  1
   59.6106    9.4603   29.4105  H 0  0  0  1  0  1
   61.1039    8.7679   29.4026  H 0  0  0  1  0  1
  1  8  1  0  0  2
 10  1  1  0  0  2
  2  3  1  0  0  2
  2 10  1  0  0  2
  3  7  2  0  0  2
  3  9  2  0  0  2
  8  4  2  0  0  2
  8  5  2  0  0  2
  8  6  2  0  0  2
  1 11  1  0  0  2
  1 12  1  0  0  2
  2 13  1  0  0  2
  2 14  1  0  0  2
 10 15  1  0  0  2
 10 16  1  0  0  2
M  END
> <MOLECULAR_FORMULA>
C3H6NO5P

> <MOLECULAR_WEIGHT>
167.0

> <NUM_HB_ATOMS>
6  

> <NUM_ROTOR>
2  

> <XLOGP2>
-3.86

$$$$
