3l7c_ligand

Created by X-TOOL on Fri Sep 26 17:34:46 2014
 32 33  0  0  0  0  0  0  0  0999 V2000
   33.3430   22.9030   27.7890  C 0  0  0  2  0  4
   34.1780   23.5970   28.7930  N 0  0  0  1  0  3
   33.7820   23.1050   26.3240  C 0  0  0  2  0  4
   34.3500   24.9300   30.8100  N 0  0  0  2  0  3
   33.8490   24.5030   26.0120  O 0  0  0  2  0  2
   32.8160   22.3780   25.3640  C 0  0  0  2  0  4
   33.3240   22.3630   24.0780  F 0  0  0  1  0  1
   32.4890   20.9500   25.8580  C 0  0  0  2  0  4
   31.2910   20.4920   25.2390  O 0  0  0  2  0  2
   32.3120   20.8650   27.3990  C 0  0  0  2  0  4
   33.4040   21.5030   28.0840  O 0  0  0  1  0  2
   32.2650   19.4230   27.8750  C 0  0  0  3  0  4
   33.3550   18.7210   27.2680  O 0  0  0  2  0  2
   35.5820   23.5700   28.6990  C 0  0  0  2  0  3
   36.3570   24.2230   29.6550  C 0  0  0  1  0  3
   37.6930   24.1890   29.5400  F 0  0  0  1  0  1
   35.7440   24.9090   30.7110  C 0  0  0  1  0  3
   36.4070   25.4970   31.5670  O 0  0  0  1  0  1
   33.5580   24.2730   29.8580  C 0  0  0  1  0  3
   32.3330   24.3060   29.9580  O 0  0  0  1  0  1
   32.3078   23.2607   27.8905  H 0  0  0  1  0  1
   34.7857   22.6726   26.1988  H 0  0  0  1  0  1
   33.9139   25.4178   31.5663  H 0  0  0  1  0  1
   34.1202   24.6119   25.1081  H 0  0  0  1  0  1
   31.8740   22.9457   25.3451  H 0  0  0  1  0  1
   33.3186   20.2887   25.5676  H 0  0  0  1  0  1
   31.0933   19.6146   25.5448  H 0  0  0  1  0  1
   31.3710   21.3665   27.6692  H 0  0  0  1  0  1
   31.3118   18.9622   27.5765  H 0  0  0  1  0  1
   32.3621   19.3880   28.9701  H 0  0  0  1  0  1
   34.1744   19.1259   27.5269  H 0  0  0  1  0  1
   36.0626   23.0386   27.8789  H 0  0  0  1  0  1
  2  1  1  0  0  2
  1  3  1  0  0  1
  1 11  1  0  0  1
  2 14  1  0  0  1
 19  2  1  0  0  1
  3  5  1  0  0  2
  3  6  1  0  0  1
  4 17  1  0  0  1
  4 19  1  0  0  1
  6  7  1  0  0  2
  6  8  1  0  0  1
  8  9  1  0  0  2
  8 10  1  0  0  1
 10 11  1  0  0  1
 10 12  1  0  0  2
 12 13  1  0  0  2
 14 15  2  0  0  1
 15 16  1  0  0  2
 15 17  1  0  0  1
 17 18  2  0  0  2
 19 20  2  0  0  2
  1 21  1  0  0  2
  3 22  1  0  0  2
  4 23  1  0  0  2
  5 24  1  0  0  2
  6 25  1  0  0  2
  8 26  1  0  0  2
  9 27  1  0  0  2
 10 28  1  0  0  2
 12 29  1  0  0  2
 12 30  1  0  0  2
 13 31  1  0  0  2
 14 32  1  0  0  2
M  END
> <MOLECULAR_FORMULA>
C10H12N2O6F2

> <MOLECULAR_WEIGHT>
294.1

> <NUM_HB_ATOMS>
7  

> <NUM_ROTOR>
2  

> <XLOGP2>
-1.88

$$$$
