3adv_ligand

Created by X-TOOL on Fri Sep 26 17:34:48 2014
 26 27  0  0  0  0  0  0  0  0999 V2000
   18.6310   64.8870    9.9730  O 0  0  0  2  0  2
   17.8260   64.5690   11.0190  C 0  0  0  1  0  3
   16.4170   64.5310   10.8410  C 0  0  0  2  0  3
   15.5710   64.2040   11.9160  C 0  0  0  2  0  3
   16.1210   63.9090   13.1920  C 0  0  0  1  0  3
   15.5690   63.5640   14.4060  N 0  0  0  2  0  3
   16.5610   63.3840   15.3350  C 0  0  0  2  0  3
   17.7760   63.5980   14.7850  C 0  0  0  1  0  3
   17.5440   63.9470   13.3750  C 0  0  0  1  0  3
   18.3930   64.2800   12.2760  C 0  0  0  2  0  3
   19.1240   63.4960   15.4810  C 0  0  0  3  0  4
   19.2270   64.5110   16.6320  C 0  0  0  3  0  4
   18.9910   63.8330   17.9140  N 0  3  0  4  0  4
   19.5378   64.8681   10.2556  H 0  0  0  1  0  1
   15.9910   64.7556    9.8699  H 0  0  0  1  0  1
   14.4971   64.1771   11.7705  H 0  0  0  1  0  1
   14.5610   63.4572   14.5886  H 0  0  0  1  0  1
   16.3924   63.1064   16.3744  H 0  0  0  1  0  1
   19.4685   64.3103   12.4083  H 0  0  0  1  0  1
   19.9220   63.6973   14.7512  H 0  0  0  1  0  1
   19.2444   62.4801   15.8852  H 0  0  0  1  0  1
   18.4737   65.3002   16.4919  H 0  0  0  1  0  1
   20.2315   64.9593   16.6352  H 0  0  0  1  0  1
   19.0594   64.5016   18.6652  H 0  0  0  1  0  1
   19.6813   63.1100   18.0438  H 0  0  0  1  0  1
   18.0704   63.4224   17.9125  H 0  0  0  1  0  1
  1  2  1  0  0  2
  2  3  4  0  0  1
  2 10  4  0  0  1
  3  4  4  0  0  1
  4  5  4  0  0  1
  5  6  1  0  0  1
  5  9  4  0  0  1
  6  7  1  0  0  1
  7  8  2  0  0  1
  8  9  1  0  0  1
  8 11  1  0  0  2
  9 10  4  0  0  1
 11 12  1  0  0  2
 12 13  1  0  0  2
  1 14  1  0  0  2
  3 15  1  0  0  2
  4 16  1  0  0  2
  6 17  1  0  0  2
  7 18  1  0  0  2
 10 19  1  0  0  2
 11 20  1  0  0  2
 11 21  1  0  0  2
 12 22  1  0  0  2
 12 23  1  0  0  2
 13 24  1  0  0  2
 13 25  1  0  0  2
 13 26  1  0  0  2
M  END
> <MOLECULAR_FORMULA>
C10H13N2O

> <MOLECULAR_WEIGHT>
177.1

> <NUM_HB_ATOMS>
3  

> <NUM_ROTOR>
2  

> <XLOGP2>
0.98 

$$$$
