3l79_ligand

Created by X-TOOL on Fri Sep 26 17:34:47 2014
 32 33  0  0  0  0  0  0  0  0999 V2000
   33.3790   22.8650   27.7770  C 0  0  0  2  0  4
   34.2690   23.5770   28.7220  N 0  0  0  1  0  3
   33.7620   23.0570   26.2970  C 0  0  0  2  0  4
   34.4670   24.8990   30.7290  N 0  0  0  2  0  3
   33.8460   24.4570   25.9890  O 0  0  0  2  0  2
   32.7410   22.3520   25.3860  C 0  0  0  2  0  4
   33.2030   22.3390   24.0830  F 0  0  0  1  0  1
   32.4510   20.9180   25.8740  C 0  0  0  2  0  4
   31.2630   20.4540   25.2380  O 0  0  0  2  0  2
   32.2910   20.8210   27.4180  C 0  0  0  2  0  4
   33.3950   21.4610   28.0930  O 0  0  0  1  0  2
   32.2670   19.3730   27.9320  C 0  0  0  3  0  4
   33.3510   18.6570   27.3190  O 0  0  0  2  0  2
   35.6730   23.6180   28.5520  C 0  0  0  2  0  3
   36.4730   24.2970   29.4740  C 0  0  0  2  0  3
   35.8580   24.9460   30.5550  C 0  0  0  1  0  3
   36.5290   25.5650   31.3790  O 0  0  0  1  0  1
   33.6660   24.2100   29.8140  C 0  0  0  1  0  3
   32.4430   24.1690   29.9560  O 0  0  0  1  0  1
   32.3580   23.2503   27.9153  H 0  0  0  1  0  1
   34.7497   22.6032   26.1282  H 0  0  0  1  0  1
   34.0468   25.3601   31.5106  H 0  0  0  1  0  1
   34.0824   24.5655   25.0753  H 0  0  0  1  0  1
   31.8002   22.9212   25.4160  H 0  0  0  1  0  1
   33.2918   20.2743   25.5762  H 0  0  0  1  0  1
   31.0730   19.5703   25.5305  H 0  0  0  1  0  1
   31.3503   21.3182   27.6968  H 0  0  0  1  0  1
   31.3108   18.8996   27.6648  H 0  0  0  1  0  1
   32.3874   19.3647   29.0253  H 0  0  0  1  0  1
   34.1739   19.0713   27.5507  H 0  0  0  1  0  1
   36.1314   23.1186   27.6997  H 0  0  0  1  0  1
   37.5553   24.3221   29.3557  H 0  0  0  1  0  1
  2  1  1  0  0  2
  1  3  1  0  0  1
  1 11  1  0  0  1
  2 14  1  0  0  1
 18  2  1  0  0  1
  3  5  1  0  0  2
  3  6  1  0  0  1
  4 16  1  0  0  1
  4 18  1  0  0  1
  6  7  1  0  0  2
  6  8  1  0  0  1
  8  9  1  0  0  2
  8 10  1  0  0  1
 10 11  1  0  0  1
 10 12  1  0  0  2
 12 13  1  0  0  2
 14 15  2  0  0  1
 15 16  1  0  0  1
 16 17  2  0  0  2
 18 19  2  0  0  2
  1 20  1  0  0  2
  3 21  1  0  0  2
  4 22  1  0  0  2
  5 23  1  0  0  2
  6 24  1  0  0  2
  8 25  1  0  0  2
  9 26  1  0  0  2
 10 27  1  0  0  2
 12 28  1  0  0  2
 12 29  1  0  0  2
 13 30  1  0  0  2
 14 31  1  0  0  2
 15 32  1  0  0  2
M  END
> <MOLECULAR_FORMULA>
C10H13N2O6F

> <MOLECULAR_WEIGHT>
276.1

> <NUM_HB_ATOMS>
7  

> <NUM_ROTOR>
2  

> <XLOGP2>
-2.22

$$$$
