2q7y_ligand

Created by X-TOOL on Fri Sep 26 17:34:41 2014
104104  0  0  0  0  0  0  0  0999 V2000
   -7.5690    1.4740   -5.5570  C 0  0  0  4  0  4
   -8.7090    2.3070   -4.9650  C 0  0  0  3  0  4
   -8.1840    3.5990   -4.3180  C 0  0  0  3  0  4
   -8.7110    4.8520   -5.0310  C 0  0  0  3  0  4
   -8.7560    6.0810   -4.1200  C 0  0  0  3  0  4
  -10.1820    6.2870   -3.5660  C 0  0  0  3  0  4
  -10.2560    5.9690   -2.0820  C 0  0  0  3  0  4
  -10.7690    7.1730   -1.3000  C 0  0  0  3  0  4
  -10.7930    6.8650    0.1920  C 0  0  0  3  0  4
  -12.1870    7.0910    0.7820  C 0  0  0  3  0  4
  -12.3210    6.4290    2.1390  C 0  0  0  3  0  4
  -13.6550    5.7070    2.2500  C 0  0  0  3  0  4
  -14.0810    5.6750    3.7020  C 0  0  0  3  0  4
  -15.2390    4.9350    3.8540  C 0  0  0  3  0  4
  -15.4020    4.0160    4.8850  C 0  0  0  3  0  4
  -16.7530    3.3090    4.8660  C 0  0  0  2  0  4
  -16.6230    1.9280    4.4450  O 0  0  0  2  0  2
  -17.4660    3.4000    6.2130  C 0  0  0  2  0  4
  -18.8170    2.6910    6.0510  C 0  0  0  3  0  4
  -19.5370    2.3390    7.2250  O 0  0  0  1  0  2
  -20.7510    1.5420    6.9640  C 0  0  0  2  0  4
  -20.3800    0.1300    6.8150  O 0  0  0  1  0  2
  -21.5440   -0.7360    7.1260  C 0  0  0  2  0  4
  -21.0910   -2.1960    7.3700  C 0  0  0  3  0  4
  -19.9210   -2.2070    8.2080  O 0  0  0  2  0  2
  -22.6090   -0.5470    6.0210  C 0  0  0  2  0  4
  -23.7960   -1.3120    6.2840  O 0  0  0  2  0  2
  -22.9880    0.9470    5.8930  C 0  0  0  2  0  4
  -23.8520    1.1220    4.7580  O 0  0  0  2  0  2
  -21.7430    1.8770    5.8030  C 0  0  0  2  0  4
  -22.1440    3.2560    5.8410  O 0  0  0  2  0  2
  -17.6720    4.8220    6.5400  N 0  0  0  2  0  3
  -17.1740    5.4280    7.6180  C 0  0  0  1  0  3
  -16.4810    4.8630    8.4720  O 0  0  0  1  0  1
  -17.5450    6.9270    7.7250  C 0  0  0  3  0  4
  -16.4080    7.8220    8.2410  C 0  0  0  3  0  4
  -15.5340    8.2960    7.0830  C 0  0  0  3  0  4
  -14.3930    9.2080    7.5600  C 0  0  0  3  0  4
  -13.4310    9.5740    6.3970  C 0  0  0  3  0  4
  -12.4520   10.6670    6.8240  C 0  0  0  3  0  4
  -11.0810   10.5620    6.1240  C 0  0  0  4  0  4
   -7.9800    0.5598   -6.0101  H 0  0  0  1  0  1
   -6.8614    1.2020   -4.7600  H 0  0  0  1  0  1
   -7.0466    2.0616   -6.3263  H 0  0  0  1  0  1
   -9.2288    1.7101   -4.2011  H 0  0  0  1  0  1
   -9.4140    2.5698   -5.7674  H 0  0  0  1  0  1
   -7.0850    3.5990   -4.3650  H 0  0  0  1  0  1
   -8.5061    3.6264   -3.2666  H 0  0  0  1  0  1
   -9.7288    4.6471   -5.3945  H 0  0  0  1  0  1
   -8.0540    5.0722   -5.8853  H 0  0  0  1  0  1
   -8.4586    6.9701   -4.6955  H 0  0  0  1  0  1
   -8.0587    5.9367   -3.2816  H 0  0  0  1  0  1
  -10.8746    5.6261   -4.1078  H 0  0  0  1  0  1
  -10.4778    7.3350   -3.7218  H 0  0  0  1  0  1
   -9.2523    5.7031   -1.7188  H 0  0  0  1  0  1
  -10.9386    5.1203   -1.9277  H 0  0  0  1  0  1
  -11.7876    7.4167   -1.6363  H 0  0  0  1  0  1
  -10.1072    8.0325   -1.4822  H 0  0  0  1  0  1
  -10.0754    7.5218    0.7055  H 0  0  0  1  0  1
  -10.5042    5.8149    0.3462  H 0  0  0  1  0  1
  -12.9386    6.6668    0.1000  H 0  0  0  1  0  1
  -12.3596    8.1718    0.8914  H 0  0  0  1  0  1
  -12.2586    7.1969    2.9241  H 0  0  0  1  0  1
  -11.5047    5.7034    2.2700  H 0  0  0  1  0  1
  -13.5497    4.6786    1.8742  H 0  0  0  1  0  1
  -14.4124    6.2389    1.6555  H 0  0  0  1  0  1
  -14.2613    6.7033    4.0485  H 0  0  0  1  0  1
  -13.2801    5.2204    4.3036  H 0  0  0  1  0  1
  -15.3684    4.3720    2.9179  H 0  0  0  1  0  1
  -16.0567    5.6631    3.9600  H 0  0  0  1  0  1
  -15.3011    4.5469    5.8431  H 0  0  0  1  0  1
  -14.6110    3.2562    4.8017  H 0  0  0  1  0  1
  -17.3816    3.8241    4.1248  H 0  0  0  1  0  1
  -17.4793    1.5166    4.4437  H 0  0  0  1  0  1
  -16.8714    2.9148    7.0011  H 0  0  0  1  0  1
  -18.6327    1.7623    5.4910  H 0  0  0  1  0  1
  -19.4642    3.3542    5.4584  H 0  0  0  1  0  1
  -21.3470    1.6359    7.8838  H 0  0  0  1  0  1
  -21.9894   -0.3823    8.0676  H 0  0  0  1  0  1
  -20.8552   -2.6716    6.4066  H 0  0  0  1  0  1
  -21.9006   -2.7522    7.8651  H 0  0  0  1  0  1
  -19.2217   -1.7270    7.7800  H 0  0  0  1  0  1
  -22.1796   -0.8868    5.0670  H 0  0  0  1  0  1
  -24.4241   -1.1700    5.5855  H 0  0  0  1  0  1
  -23.5476    1.2313    6.7963  H 0  0  0  1  0  1
  -24.6386    0.6028    4.8772  H 0  0  0  1  0  1
  -21.2341    1.6914    4.8456  H 0  0  0  1  0  1
  -21.3743    3.8101    5.7853  H 0  0  0  1  0  1
  -18.2229    5.3698    5.9104  H 0  0  0  1  0  1
  -18.3984    7.0229    8.4123  H 0  0  0  1  0  1
  -17.8372    7.2822    6.7258  H 0  0  0  1  0  1
  -15.7909    7.2507    8.9501  H 0  0  0  1  0  1
  -16.8385    8.6963    8.7511  H 0  0  0  1  0  1
  -16.1599    8.8532    6.3704  H 0  0  0  1  0  1
  -15.1009    7.4177    6.5820  H 0  0  0  1  0  1
  -13.8236    8.6874    8.3441  H 0  0  0  1  0  1
  -14.8233   10.1327    7.9720  H 0  0  0  1  0  1
  -14.0209    9.9331    5.5408  H 0  0  0  1  0  1
  -12.8647    8.6782    6.1023  H 0  0  0  1  0  1
  -12.2965   10.5922    7.9104  H 0  0  0  1  0  1
  -12.8934   11.6453    6.5832  H 0  0  0  1  0  1
  -10.4272   11.3742    6.4745  H 0  0  0  1  0  1
  -11.2176   10.6451    5.0357  H 0  0  0  1  0  1
  -10.6207    9.5919    6.3628  H 0  0  0  1  0  1
  1  2  1  0  0  2
  2  3  1  0  0  2
  3  4  1  0  0  2
  4  5  1  0  0  2
  5  6  1  0  0  2
  6  7  1  0  0  2
  7  8  1  0  0  2
  8  9  1  0  0  2
  9 10  1  0  0  2
 10 11  1  0  0  2
 11 12  1  0  0  2
 12 13  1  0  0  2
 13 14  1  0  0  2
 14 15  1  0  0  2
 15 16  1  0  0  2
 16 17  1  0  0  2
 16 18  1  0  0  2
 18 19  1  0  0  2
 18 32  1  0  0  2
 19 20  1  0  0  2
 20 21  1  0  0  2
 21 22  1  0  0  1
 21 30  1  0  0  1
 22 23  1  0  0  1
 23 24  1  0  0  2
 23 26  1  0  0  1
 24 25  1  0  0  2
 26 27  1  0  0  2
 26 28  1  0  0  1
 28 29  1  0  0  2
 28 30  1  0  0  1
 30 31  1  0  0  2
 32 33  1  0  0  2
 33 34  2  0  0  2
 33 35  1  0  0  2
 35 36  1  0  0  2
 36 37  1  0  0  2
 37 38  1  0  0  2
 38 39  1  0  0  2
 39 40  1  0  0  2
 40 41  1  0  0  2
  1 42  1  0  0  2
  1 43  1  0  0  2
  1 44  1  0  0  2
  2 45  1  0  0  2
  2 46  1  0  0  2
  3 47  1  0  0  2
  3 48  1  0  0  2
  4 49  1  0  0  2
  4 50  1  0  0  2
  5 51  1  0  0  2
  5 52  1  0  0  2
  6 53  1  0  0  2
  6 54  1  0  0  2
  7 55  1  0  0  2
  7 56  1  0  0  2
  8 57  1  0  0  2
  8 58  1  0  0  2
  9 59  1  0  0  2
  9 60  1  0  0  2
 10 61  1  0  0  2
 10 62  1  0  0  2
 11 63  1  0  0  2
 11 64  1  0  0  2
 12 65  1  0  0  2
 12 66  1  0  0  2
 13 67  1  0  0  2
 13 68  1  0  0  2
 14 69  1  0  0  2
 14 70  1  0  0  2
 15 71  1  0  0  2
 15 72  1  0  0  2
 16 73  1  0  0  2
 17 74  1  0  0  2
 18 75  1  0  0  2
 19 76  1  0  0  2
 19 77  1  0  0  2
 21 78  1  0  0  2
 23 79  1  0  0  2
 24 80  1  0  0  2
 24 81  1  0  0  2
 25 82  1  0  0  2
 26 83  1  0  0  2
 27 84  1  0  0  2
 28 85  1  0  0  2
 29 86  1  0  0  2
 30 87  1  0  0  2
 31 88  1  0  0  2
 32 89  1  0  0  2
 35 90  1  0  0  2
 35 91  1  0  0  2
 36 92  1  0  0  2
 36 93  1  0  0  2
 37 94  1  0  0  2
 37 95  1  0  0  2
 38 96  1  0  0  2
 38 97  1  0  0  2
 39 98  1  0  0  2
 39 99  1  0  0  2
 40100  1  0  0  2
 40101  1  0  0  2
 41102  1  0  0  2
 41103  1  0  0  2
 41104  1  0  0  2
M  END
> <MOLECULAR_FORMULA>
C32H63NO8

> <MOLECULAR_WEIGHT>
589.3

> <NUM_HB_ATOMS>
9  

> <NUM_ROTOR>
26 

> <XLOGP2>
6.17 

$$$$
