3lbz_ligand

Created by X-TOOL on Fri Sep 26 17:34:48 2014
 33 35  0  0  0  0  0  0  0  0999 V2000
   -5.8640    6.9850   20.3670  C 0  5  0  1  0  3
   -5.4560    5.2670   18.8240  N 0  0  0  1  0  3
   -6.4920    6.0600   20.9680  O 0  0  0  1  0  1
   -4.8740    6.5840   19.2700  C 0  0  0  2  0  4
   -3.4770    6.5540   19.9250  C 0  0  0  3  0  4
   -2.9580    7.9740   20.1740  C 0  5  0  1  0  3
   -4.1380   -0.2320   18.9500  C 0  0  0  1  0  3
   -4.1090    1.1540   19.0870  C 0  0  0  1  0  3
   -2.9920    1.8170   19.6220  C 0  0  0  2  0  3
   -1.8710    1.0990   20.0470  C 0  0  0  1  0  3
   -0.3140    1.9250   20.8020 Br 0  0  0  1  0  1
   -1.9140   -0.2780   19.9040  C 0  0  0  2  0  3
   -3.0250   -0.9210   19.3760  C 0  0  0  2  0  3
   -5.3240    1.5950   18.5780  C 0  0  0  1  0  3
   -6.0160    0.4740   18.1640  C 0  0  0  1  0  3
   -5.3120   -0.6460   18.3940  N 0  0  0  2  0  3
   -7.1820    0.4550   17.6350  O 0  0  0  1  0  1
   -5.7460    2.9440   18.5110  C 0  0  0  1  0  3
   -4.9350    4.0280   18.9710  C 0  0  0  1  0  3
   -6.7000    5.0920   18.2730  C 0  0  0  1  0  3
   -7.6560    6.5660   17.9670  S 0  0  0  1  0  1
   -7.2990    3.4720   17.8520  S 0  0  0  1  0  2
   -3.7360    3.9040   19.4760  O 0  0  0  1  0  1
   -2.7970    8.4080   21.3470  O 0  0  0  1  0  1
   -2.7190    8.7030   19.1830  O 0  0  0  1  0  1
   -6.0800    8.2020   20.6580  O 0  0  0  1  0  1
   -4.8638    7.2972   18.4326  H 0  0  0  1  0  1
   -2.7782    6.0271   19.2586  H 0  0  0  1  0  1
   -3.5409    6.0207   20.8849  H 0  0  0  1  0  1
   -2.9997    2.8977   19.7061  H 0  0  0  1  0  1
   -1.0586   -0.8683   20.2121  H 0  0  0  1  0  1
   -3.0159   -2.0020   19.2964  H 0  0  0  1  0  1
   -5.5904   -1.5864   18.1985  H 0  0  0  1  0  1
  1  3  2  0  0  2
  4  1  1  0  0  2
  1 26  2  0  0  2
  2  4  1  0  0  2
 19  2  1  0  0  1
  2 20  1  0  0  1
  4  5  1  0  0  2
  5  6  1  0  0  2
  6 24  2  0  0  2
  6 25  2  0  0  2
  8  7  4  0  0  1
  7 13  4  0  0  1
 16  7  1  0  0  1
  8  9  4  0  0  1
 14  8  1  0  0  1
  9 10  4  0  0  1
 10 11  1  0  0  2
 10 12  4  0  0  1
 13 12  4  0  0  1
 14 15  1  0  0  1
 18 14  2  0  0  2
 15 16  1  0  0  1
 15 17  2  0  0  2
 18 19  1  0  0  1
 18 22  1  0  0  1
 19 23  2  0  0  2
 20 21  2  0  0  2
 20 22  1  0  0  1
  4 27  1  0  0  2
  5 28  1  0  0  2
  5 29  1  0  0  2
  9 30  1  0  0  2
 12 31  1  0  0  2
 13 32  1  0  0  2
 16 33  1  0  0  2
M  END
> <MOLECULAR_FORMULA>
C15H7N2O6S2Br

> <MOLECULAR_WEIGHT>
455.2

> <NUM_HB_ATOMS>
8  

> <NUM_ROTOR>
2  

> <XLOGP2>
0.87 

$$$$
