2yln_ligand

Created by X-TOOL on Fri Sep 26 17:34:49 2014
 14 13  0  0  0  0  0  0  0  0999 V2000
    8.9780    2.6370   -2.0130  N 0  3  0  4  0  4
    7.5870    2.8690   -1.5720  C 0  0  0  2  0  4
    7.3350    4.3570   -1.3250  C 0  5  0  1  0  3
    8.3200    5.0330   -0.9570  O 0  0  0  1  0  1
    7.2870    2.1000   -0.2820  C 0  0  0  3  0  4
    7.4230    0.3220   -0.4480  S 0  0  0  2  0  2
    6.1700    4.7800   -1.4640  O 0  0  0  1  0  1
    9.1209    1.6515   -2.1694  H 0  0  0  1  0  1
    9.6145    2.9599   -1.3012  H 0  0  0  1  0  1
    9.1476    3.1412   -2.8692  H 0  0  0  1  0  1
    6.9073    2.5183   -2.3626  H 0  0  0  1  0  1
    6.2613    2.3407    0.0340  H 0  0  0  1  0  1
    7.9961    2.4308    0.4912  H 0  0  0  1  0  1
    7.2126   -0.1139    0.4362  H 0  0  0  1  0  1
  1  2  1  0  0  2
  2  3  1  0  0  2
  2  5  1  0  0  2
  3  4  2  0  0  2
  3  7  2  0  0  2
  5  6  1  0  0  2
  1  8  1  0  0  2
  1  9  1  0  0  2
  1 10  1  0  0  2
  2 11  1  0  0  2
  5 12  1  0  0  2
  5 13  1  0  0  2
  6 14  1  0  0  2
M  END
> <MOLECULAR_FORMULA>
C3H7NO2S

> <MOLECULAR_WEIGHT>
121.1

> <NUM_HB_ATOMS>
4  

> <NUM_ROTOR>
1  

> <XLOGP2>
-2.63

$$$$
