3afk_ligand

Created by X-TOOL on Fri Sep 26 17:34:47 2014
 65 66  0  0  0  0  0  0  0  0999 V2000
   13.2640    6.2850  -19.2990  C 0  0  0  2  0  4
   12.5760    7.6050  -18.9450  C 0  0  0  2  0  4
   13.4270    8.4650  -18.0100  C 0  0  0  2  0  4
   13.8370    7.6200  -16.8030  C 0  0  0  2  0  4
   14.5580    6.3670  -17.3050  C 0  0  0  2  0  4
   15.0530    5.5340  -16.1220  C 0  0  0  3  0  4
   12.2630    8.3260  -20.1400  O 0  0  0  2  0  2
   12.6550    9.5860  -17.5720  O 0  0  0  2  0  2
   12.6650    7.2300  -16.0820  O 0  0  0  2  0  2
   13.6650    5.5830  -18.1110  O 0  0  0  1  0  2
   15.7760    4.4010  -16.6110  O 0  0  0  2  0  2
   12.5530    1.9970  -22.1450  O 0  0  0  1  0  2
   11.9950    3.1270  -22.8340  C 0  0  0  2  0  4
   11.6040    4.2330  -21.8520  C 0  0  0  2  0  4
   11.2450    5.4370  -22.6160  N 0  0  0  2  0  3
   12.7770    4.6150  -20.9490  C 0  0  0  2  0  4
   12.2530    5.5140  -19.9630  O 0  0  0  1  0  2
   13.4110    3.3670  -20.3320  C 0  0  0  2  0  4
   12.5190    2.7720  -19.3850  O 0  0  0  2  0  2
   13.7470    2.3570  -21.4310  C 0  0  0  2  0  4
   14.3530    1.1010  -20.8010  C 0  0  0  3  0  4
   14.7040    0.1770  -21.8350  O 0  0  0  2  0  2
    9.9900    5.8490  -22.7750  C 0  0  0  1  0  3
    8.9630    5.1470  -22.2260  O 0  0  0  1  0  1
    9.7310    7.0160  -23.4850  C 0  0  0  4  0  4
   13.5820    4.7050  -26.2940  N 0  3  0  4  0  4
   12.6280    3.5920  -26.1880  C 0  0  0  2  0  4
   11.2090    4.1530  -26.0790  C 0  5  0  1  0  3
   11.0850    5.3960  -26.1130  O 0  0  0  1  0  1
   12.9500    2.7690  -24.9380  C 0  0  0  2  0  4
   12.9370    3.6310  -23.7910  O 0  0  0  1  0  2
   14.3220    2.1090  -25.0800  C 0  0  0  4  0  4
   10.2780    3.3260  -25.9650  O 0  0  0  1  0  1
   14.1330    6.4563  -19.9513  H 0  0  0  1  0  1
   11.6352    7.3699  -18.4258  H 0  0  0  1  0  1
   14.3244    8.8174  -18.5395  H 0  0  0  1  0  1
   14.5034    8.1998  -16.1475  H 0  0  0  1  0  1
   15.4211    6.6706  -17.9156  H 0  0  0  1  0  1
   14.1927    5.1923  -15.5277  H 0  0  0  1  0  1
   15.7137    6.1473  -15.4917  H 0  0  0  1  0  1
   11.7348    7.7790  -20.7094  H 0  0  0  1  0  1
   11.8765    9.2772  -17.1235  H 0  0  0  1  0  1
   12.0897    6.7389  -16.6568  H 0  0  0  1  0  1
   15.2042    3.8727  -17.1554  H 0  0  0  1  0  1
   11.0909    2.7988  -23.3678  H 0  0  0  1  0  1
   10.7535    3.8982  -21.2400  H 0  0  0  1  0  1
   11.9787    5.9713  -23.0358  H 0  0  0  1  0  1
   13.5438    5.1358  -21.5412  H 0  0  0  1  0  1
   14.3381    3.6565  -19.8157  H 0  0  0  1  0  1
   12.3287    3.3967  -18.6951  H 0  0  0  1  0  1
   14.4704    2.8039  -22.1289  H 0  0  0  1  0  1
   13.6182    0.6366  -20.1269  H 0  0  0  1  0  1
   15.2531    1.3735  -20.2304  H 0  0  0  1  0  1
   13.9256   -0.0568  -22.3269  H 0  0  0  1  0  1
    8.6461    7.1956  -23.5120  H 0  0  0  1  0  1
   10.1111    6.9124  -24.5120  H 0  0  0  1  0  1
   10.2308    7.8633  -22.9927  H 0  0  0  1  0  1
   13.3731    5.2494  -27.1162  H 0  0  0  1  0  1
   14.5188    4.3392  -26.3623  H 0  0  0  1  0  1
   13.5084    5.2897  -25.4762  H 0  0  0  1  0  1
   12.7045    2.9530  -27.0801  H 0  0  0  1  0  1
   12.1867    1.9869  -24.8128  H 0  0  0  1  0  1
   14.5414    1.5212  -24.1764  H 0  0  0  1  0  1
   15.0908    2.8852  -25.2081  H 0  0  0  1  0  1
   14.3208    1.4457  -25.9575  H 0  0  0  1  0  1
  1  2  1  0  0  1
  1 10  1  0  0  1
 17  1  1  0  0  2
  2  3  1  0  0  1
  2  7  1  0  0  2
  3  4  1  0  0  1
  3  8  1  0  0  2
  5  4  1  0  0  1
  4  9  1  0  0  2
  5  6  1  0  0  2
 10  5  1  0  0  1
  6 11  1  0  0  2
 13 12  1  0  0  1
 12 20  1  0  0  1
 13 14  1  0  0  1
 31 13  1  0  0  2
 14 15  1  0  0  2
 14 16  1  0  0  1
 15 23  1  0  0  2
 16 17  1  0  0  2
 16 18  1  0  0  1
 18 19  1  0  0  2
 20 18  1  0  0  1
 20 21  1  0  0  2
 21 22  1  0  0  2
 23 24  2  0  0  2
 23 25  1  0  0  2
 27 26  1  0  0  2
 27 28  1  0  0  2
 30 27  1  0  0  2
 28 29  2  0  0  2
 28 33  2  0  0  2
 30 31  1  0  0  2
 30 32  1  0  0  2
  1 34  1  0  0  2
  2 35  1  0  0  2
  3 36  1  0  0  2
  4 37  1  0  0  2
  5 38  1  0  0  2
  6 39  1  0  0  2
  6 40  1  0  0  2
  7 41  1  0  0  2
  8 42  1  0  0  2
  9 43  1  0  0  2
 11 44  1  0  0  2
 13 45  1  0  0  2
 14 46  1  0  0  2
 15 47  1  0  0  2
 16 48  1  0  0  2
 18 49  1  0  0  2
 19 50  1  0  0  2
 20 51  1  0  0  2
 21 52  1  0  0  2
 21 53  1  0  0  2
 22 54  1  0  0  2
 25 55  1  0  0  2
 25 56  1  0  0  2
 25 57  1  0  0  2
 26 58  1  0  0  2
 26 59  1  0  0  2
 26 60  1  0  0  2
 27 61  1  0  0  2
 30 62  1  0  0  2
 32 63  1  0  0  2
 32 64  1  0  0  2
 32 65  1  0  0  2
M  END
> <MOLECULAR_FORMULA>
C18H32N2O13

> <MOLECULAR_WEIGHT>
484.2

> <NUM_HB_ATOMS>
15 

> <NUM_ROTOR>
8  

> <XLOGP2>
-6.86

$$$$
