3lc3_ligand

Created by X-TOOL on Fri Sep 26 17:34:47 2014
 39 41  0  0  0  0  0  0  0  0999 V2000
   24.2260  -14.8210   18.5720  C 0  0  0  1  0  3
   23.5690  -13.6300   18.7900  C 0  0  0  1  0  3
   23.5320  -16.0040   18.3500  C 0  0  0  2  0  3
   22.1760  -13.6090   18.8060  C 0  0  0  2  0  3
   22.1420  -16.0090   18.3420  C 0  0  0  1  0  3
   21.4590  -14.8000   18.5790  C 0  0  0  2  0  3
   25.6010  -14.6820   18.5940  C 0  0  0  2  0  3
   25.9910  -13.3700   18.8360  C 0  0  0  1  0  3
   24.6580  -12.4430   18.9970  S 0  0  0  1  0  2
   21.4320  -17.2990   18.1180  C 0  0  0  1  0  3
   21.9120  -18.4070   18.8080  C 0  0  0  2  0  3
   20.3460  -17.4530   17.2580  C 0  0  0  2  0  3
   21.3220  -19.6560   18.6590  C 0  0  0  2  0  3
   19.7330  -18.7140   17.1150  C 0  0  0  1  0  3
   20.2450  -19.8070   17.8150  C 0  0  0  1  0  3
   18.6670  -18.9010   16.2670  O 0  0  0  1  0  2
   17.6870  -17.8980   15.9600  C 0  0  0  4  0  4
   19.7200  -21.0650   17.7390  O 0  0  0  1  0  2
   18.8850  -21.5650   16.6900  C 0  0  0  4  0  4
   27.3940  -12.8940   18.8890  C 0  3  0  1  0  3
   27.6570  -11.6450   19.0610  N 0  0  0  3  0  3
   28.4720  -13.7380   18.7040  N 0  0  0  3  0  3
   24.0764  -16.9263   18.1825  H 0  0  0  1  0  1
   21.6470  -12.6813   18.9921  H 0  0  0  1  0  1
   20.3751  -14.7861   18.5867  H 0  0  0  1  0  1
   26.2977  -15.5046   18.4397  H 0  0  0  1  0  1
   22.7605  -18.2943   19.4731  H 0  0  0  1  0  1
   19.9727  -16.6026   16.6989  H 0  0  0  1  0  1
   21.7084  -20.5087   19.2055  H 0  0  0  1  0  1
   16.9475  -18.3107   15.2579  H 0  0  0  1  0  1
   18.1825  -17.0293   15.5019  H 0  0  0  1  0  1
   17.1800  -17.5855   16.8848  H 0  0  0  1  0  1
   18.6174  -22.6108   16.9014  H 0  0  0  1  0  1
   19.4258  -21.5111   15.7336  H 0  0  0  1  0  1
   17.9700  -20.9576   16.6286  H 0  0  0  1  0  1
   28.6353  -11.3248   19.0963  H 0  0  0  1  0  1
   26.8890  -10.9663   19.1632  H 0  0  0  1  0  1
   28.3181  -14.7465   18.5619  H 0  0  0  1  0  1
   29.4296  -13.3588   18.7082  H 0  0  0  1  0  1
  1  2  4  0  0  1
  1  3  4  0  0  1
  1  7  1  0  0  1
  2  4  4  0  0  1
  2  9  1  0  0  1
  3  5  4  0  0  1
  4  6  4  0  0  1
  5  6  4  0  0  1
  5 10  1  0  0  2
  7  8  2  0  0  1
  8  9  1  0  0  1
  8 20  1  0  0  2
 10 11  4  0  0  1
 10 12  4  0  0  1
 11 13  4  0  0  1
 12 14  4  0  0  1
 13 15  4  0  0  1
 14 15  4  0  0  1
 14 16  1  0  0  2
 15 18  1  0  0  2
 16 17  1  0  0  2
 18 19  1  0  0  2
 20 21  2  0  0  2
 20 22  2  0  0  2
  3 23  1  0  0  2
  4 24  1  0  0  2
  6 25  1  0  0  2
  7 26  1  0  0  2
 11 27  1  0  0  2
 12 28  1  0  0  2
 13 29  1  0  0  2
 17 30  1  0  0  2
 17 31  1  0  0  2
 17 32  1  0  0  2
 19 33  1  0  0  2
 19 34  1  0  0  2
 19 35  1  0  0  2
 21 36  1  0  0  2
 21 37  1  0  0  2
 22 38  1  0  0  2
 22 39  1  0  0  2
M  END
> <MOLECULAR_FORMULA>
C17H17N2O2S

> <MOLECULAR_WEIGHT>
313.3

> <NUM_HB_ATOMS>
4  

> <NUM_ROTOR>
2  

> <XLOGP2>
2.69 

$$$$
