4wr7_ligand

Created by X-TOOL on Sun Nov 13 14:27:05 2016
 27 27  0  0  0  0  0  0  0  0999 V2000
   12.5150   38.1500   15.9040  F 0  0  0  1  0  1
   12.7170   37.1420   16.7960  C 0  0  0  1  0  3
   13.4640   37.4030   17.9760  C 0  0  0  1  0  3
   13.9440   38.6540   18.1480  F 0  0  0  1  0  1
   12.1740   35.9020   16.5990  C 0  0  0  1  0  3
   11.2090   35.5760   15.0980  S 0  0  0  1  0  2
    9.7120   34.8300   15.8920  C 0  0  0  3  0  4
    8.5890   34.6380   14.8630  C 0  0  0  3  0  4
    8.0550   36.0070   14.4850  C 0  0  0  4  0  4
   12.3930   34.8810   17.5020  C 0  0  0  1  0  3
   11.9290   33.6060   17.3240  F 0  0  0  1  0  1
   13.1440   35.1360   18.6610  C 0  0  0  1  0  3
   13.3150   34.1230   19.5270  F 0  0  0  1  0  1
   13.6650   36.4390   18.9310  C 0  0  0  1  0  3
   14.5850   36.8940   20.4190  S 0  0  0  1  0  4
   14.8350   35.5860   21.0950  O 0  0  0  1  0  1
   13.7730   37.9430   21.0670  O 0  0  0  1  0  1
   16.0830   37.3620   19.8590  N 0  0  0  3  0  3
    9.3580   35.4965   16.6922  H 0  0  0  1  0  1
    9.9798   33.8529   16.3203  H 0  0  0  1  0  1
    7.7825   34.0313   15.3005  H 0  0  0  1  0  1
    8.9846   34.1327   13.9696  H 0  0  0  1  0  1
    7.2473   35.8945   13.7468  H 0  0  0  1  0  1
    8.8663   36.6102   14.0516  H 0  0  0  1  0  1
    7.6642   36.5088   15.3825  H 0  0  0  1  0  1
   16.7855   37.6644   20.5032  H 0  0  0  1  0  1
   16.2795   37.3404   18.8787  H 0  0  0  1  0  1
  1  2  1  0  0  2
  2  3  4  0  0  1
  2  5  4  0  0  1
  3  4  1  0  0  2
  3 14  4  0  0  1
  5  6  1  0  0  2
  5 10  4  0  0  1
  6  7  1  0  0  2
  7  8  1  0  0  2
  8  9  1  0  0  2
 10 11  1  0  0  2
 10 12  4  0  0  1
 12 13  1  0  0  2
 12 14  4  0  0  1
 14 15  1  0  0  2
 15 16  2  0  0  2
 15 17  2  0  0  2
 15 18  1  0  0  2
  7 19  1  0  0  2
  7 20  1  0  0  2
  8 21  1  0  0  2
  8 22  1  0  0  2
  9 23  1  0  0  2
  9 24  1  0  0  2
  9 25  1  0  0  2
 18 26  1  0  0  2
 18 27  1  0  0  2
M  END
> <MOLECULAR_FORMULA>
C9H9NO2S2F4

> <MOLECULAR_WEIGHT>
303.2

> <NUM_HB_ATOMS>
4  

> <NUM_ROTOR>
4  

> <XLOGP2>
2.26 

$$$$
