3l7d_ligand

Created by X-TOOL on Fri Sep 26 17:34:47 2014
 44 46  0  0  0  0  0  0  0  0999 V2000
   33.5220   23.1290   27.9090  C 0  0  0  2  0  4
   34.4410   23.7540   28.8990  N 0  0  0  1  0  3
   33.7940   23.4130   26.4090  C 0  0  0  3  0  4
   34.6430   24.8070   31.0200  N 0  0  0  1  0  2
   32.8590   22.5810   25.5040  C 0  0  0  2  0  4
   33.3790   22.4900   24.2340  F 0  0  0  1  0  1
   36.6350   25.5080   31.8950  N 0  0  0  2  0  3
   32.6010   21.1530   26.0200  C 0  0  0  2  0  4
   31.4590   20.6440   25.3200  O 0  0  0  2  0  2
   32.3620   21.0750   27.5480  C 0  0  0  2  0  4
   33.4750   21.7000   28.2340  O 0  0  0  1  0  2
   32.2950   19.6070   28.0180  C 0  0  0  3  0  4
   33.4630   18.9110   27.5450  O 0  0  0  2  0  2
   35.8420   23.8310   28.7150  C 0  0  0  2  0  3
   36.6220   24.4290   29.7170  C 0  0  0  2  0  3
   35.9780   24.9220   30.8750  C 0  0  0  1  0  3
   33.8640   24.2450   30.0790  C 0  0  0  1  0  3
   32.6380   24.1700   30.2400  O 0  0  0  1  0  1
   37.9040   25.9590   31.8300  C 0  0  0  1  0  3
   38.6270   25.8850   30.8320  O 0  0  0  1  0  1
   38.4370   26.6060   33.1230  C 0  0  0  1  0  3
   39.3810   27.6400   33.0380  C 0  0  0  2  0  3
   39.8790   28.2370   34.2010  C 0  0  0  2  0  3
   39.4280   27.8100   35.4520  C 0  0  0  2  0  3
   38.4810   26.7880   35.5340  C 0  0  0  2  0  3
   37.9890   26.1830   34.3730  C 0  0  0  2  0  3
   32.5217   23.5428   28.1045  H 0  0  0  1  0  1
   34.8384   23.1556   26.1788  H 0  0  0  1  0  1
   33.6275   24.4820   26.2103  H 0  0  0  1  0  1
   31.8928   23.1044   25.4535  H 0  0  0  1  0  1
   36.1471   25.6160   32.7612  H 0  0  0  1  0  1
   33.4779   20.5330   25.7818  H 0  0  0  1  0  1
   31.2741   19.7610   25.6177  H 0  0  0  1  0  1
   31.4234   21.5905   27.7997  H 0  0  0  1  0  1
   31.3912   19.1301   27.6110  H 0  0  0  1  0  1
   32.2647   19.5724   29.1170  H 0  0  0  1  0  1
   34.2418   19.3259   27.8971  H 0  0  0  1  0  1
   36.3060   23.4339   27.8134  H 0  0  0  1  0  1
   37.7020   24.5116   29.6047  H 0  0  0  1  0  1
   39.7259   27.9778   32.0674  H 0  0  0  1  0  1
   40.6143   29.0304   34.1313  H 0  0  0  1  0  1
   39.8118   28.2703   36.3553  H 0  0  0  1  0  1
   38.1244   26.4610   36.5040  H 0  0  0  1  0  1
   37.2590   25.3849   34.4455  H 0  0  0  1  0  1
  2  1  1  0  0  2
  1  3  1  0  0  1
  1 11  1  0  0  1
  2 14  1  0  0  1
 17  2  1  0  0  1
  3  5  1  0  0  1
  4 16  2  0  0  1
  4 17  1  0  0  1
  5  6  1  0  0  2
  5  8  1  0  0  1
 16  7  1  0  0  2
  7 19  1  0  0  2
  8  9  1  0  0  2
  8 10  1  0  0  1
 10 11  1  0  0  1
 10 12  1  0  0  2
 12 13  1  0  0  2
 14 15  2  0  0  1
 15 16  1  0  0  1
 17 18  2  0  0  2
 19 20  2  0  0  2
 19 21  1  0  0  2
 21 22  4  0  0  1
 21 26  4  0  0  1
 22 23  4  0  0  1
 23 24  4  0  0  1
 24 25  4  0  0  1
 25 26  4  0  0  1
  1 27  1  0  0  2
  3 28  1  0  0  2
  3 29  1  0  0  2
  5 30  1  0  0  2
  7 31  1  0  0  2
  8 32  1  0  0  2
  9 33  1  0  0  2
 10 34  1  0  0  2
 12 35  1  0  0  2
 12 36  1  0  0  2
 13 37  1  0  0  2
 14 38  1  0  0  2
 15 39  1  0  0  2
 22 40  1  0  0  2
 23 41  1  0  0  2
 24 42  1  0  0  2
 25 43  1  0  0  2
 26 44  1  0  0  2
M  END
> <MOLECULAR_FORMULA>
C17H18N3O5F

> <MOLECULAR_WEIGHT>
363.2

> <NUM_HB_ATOMS>
7  

> <NUM_ROTOR>
2  

> <XLOGP2>
-0.03

$$$$
