3lbj_ligand

Created by X-TOOL on Fri Sep 26 17:34:46 2014
 84 89  0  0  0  0  0  0  0  0999 V2000
   15.4330   -6.5810    4.9840  C 0  0  0  2  0  3
   16.4450   -6.3180    5.9000  C 0  0  0  1  0  3
   16.9210   -7.5330    7.0300 Cl 0  0  0  1  0  1
   17.0910   -5.0870    5.8940  C 0  0  0  2  0  3
   16.7210   -4.0870    4.9890  C 0  0  0  2  0  3
   15.7130   -4.3590    4.0730  C 0  0  0  1  0  3
   15.0650   -5.5890    4.0970  C 0  0  0  1  0  3
   14.1750   -5.6050    3.1360  N 0  0  0  2  0  3
   14.1750   -4.4420    2.5120  C 0  0  0  1  0  3
   13.2140   -4.2420    1.3740  C 0  0  0  1  0  3
   12.9040   -5.2480    0.7270  O 0  0  0  1  0  1
   12.6710   -3.0850    1.0600  N 0  0  0  1  0  3
   12.8390   -1.8290    1.8120  C 0  0  0  3  0  4
   11.5690   -1.0950    1.4220  C 0  0  0  2  0  4
   11.6450    0.3280    1.7340  N 0  3  0  2  0  4
   12.0730    0.7380    3.0620  C 0  0  0  3  0  4
   12.7070    2.1190    3.1440  C 0  0  0  3  0  4
   13.0530    2.2500    4.6170  C 0  0  0  3  0  4
   13.2080    3.6120    5.0680  N 0  3  0  2  0  4
   13.4130    4.0040    6.4330  C 0  0  0  4  0  4
   14.5030    4.0160    4.5180  C 0  0  0  4  0  4
   10.8070    1.2150    0.9420  C 0  0  0  4  0  4
   11.3520   -1.4460   -0.0600  C 0  0  0  3  0  4
   11.7160   -2.9390   -0.0660  C 0  0  0  3  0  4
   15.1110   -3.5930    3.0880  C 0  0  0  1  0  3
   15.5830   -2.3260    2.7040  C 0  0  0  1  0  3
   15.7760   -1.1580    3.4410  C 0  0  0  1  0  3
   15.3500   -0.8220    4.7210  C 0  0  0  1  0  3
   16.0340    0.1950    5.3760  C 0  0  0  2  0  3
   15.6210    0.6210    6.6400  C 0  0  0  2  0  3
   14.5210    0.0060    7.2570  C 0  0  0  2  0  3
   13.8580   -1.0160    6.5800  C 0  0  0  2  0  3
   14.2740   -1.4480    5.3270  C 0  0  0  2  0  3
   16.3590   -0.2480    2.6450  N 0  0  0  1  0  2
   16.6040   -0.8210    1.4760  C 0  0  0  2  0  3
   16.1620   -2.0590    1.5200  N 0  0  0  1  0  3
   16.2950   -2.9700    0.3860  C 0  0  0  3  0  4
   17.3100   -4.0810    0.7390  C 0  0  0  1  0  3
   16.9410   -5.4090    0.6070  C 0  0  0  2  0  3
   17.8310   -6.4330    0.9180  C 0  0  0  2  0  3
   19.1030   -6.1490    1.3930  C 0  0  0  1  0  3
   20.2250   -7.4080    1.7940 Cl 0  0  0  1  0  1
   19.4720   -4.8300    1.5460  C 0  0  0  2  0  3
   18.5750   -3.7920    1.2360  C 0  0  0  2  0  3
   14.9418   -7.5472    4.9664  H 0  0  0  1  0  1
   17.8920   -4.8998    6.6000  H 0  0  0  1  0  1
   17.2106   -3.1200    5.0022  H 0  0  0  1  0  1
   13.5677   -6.4036    2.9028  H 0  0  0  1  0  1
   13.7379   -1.2819    1.4915  H 0  0  0  1  0  1
   12.8863   -2.0090    2.8961  H 0  0  0  1  0  1
   10.7266   -1.5038    1.9993  H 0  0  0  1  0  1
   12.5154    0.5187    1.2627  H 0  0  0  1  0  1
   12.8087    0.0045    3.4234  H 0  0  0  1  0  1
   11.1921    0.7290    3.7207  H 0  0  0  1  0  1
   11.9962    2.8992    2.8341  H 0  0  0  1  0  1
   13.6105    2.1769    2.5192  H 0  0  0  1  0  1
   13.9978    1.7167    4.7985  H 0  0  0  1  0  1
   12.2489    1.7816    5.2035  H 0  0  0  1  0  1
   12.4384    4.1457    4.6952  H 0  0  0  1  0  1
   13.4981    5.0992    6.4911  H 0  0  0  1  0  1
   14.3375    3.5438    6.8118  H 0  0  0  1  0  1
   12.5606    3.6696    7.0425  H 0  0  0  1  0  1
   14.5328    3.7853    3.4429  H 0  0  0  1  0  1
   15.3067    3.4691    5.0327  H 0  0  0  1  0  1
   14.6426    5.0971    4.6650  H 0  0  0  1  0  1
   10.5847    0.7420   -0.0259  H 0  0  0  1  0  1
   11.3354    2.1649    0.7732  H 0  0  0  1  0  1
    9.8672    1.4087    1.4798  H 0  0  0  1  0  1
   12.0189   -0.8653   -0.7142  H 0  0  0  1  0  1
   10.3075   -1.2840   -0.3645  H 0  0  0  1  0  1
   10.8223   -3.5591    0.0975  H 0  0  0  1  0  1
   12.1891   -3.2214   -1.0180  H 0  0  0  1  0  1
   16.8919    0.6596    4.9036  H 0  0  0  1  0  1
   16.1482    1.4238    7.1427  H 0  0  0  1  0  1
   14.1931    0.3198    8.2414  H 0  0  0  1  0  1
   12.9970   -1.4851    7.0423  H 0  0  0  1  0  1
   13.7628   -2.2646    4.8301  H 0  0  0  1  0  1
   17.0889   -0.3475    0.6236  H 0  0  0  1  0  1
   16.6512   -2.4129   -0.4930  H 0  0  0  1  0  1
   15.3179   -3.4228    0.1620  H 0  0  0  1  0  1
   15.9451   -5.6546    0.2565  H 0  0  0  1  0  1
   17.5264   -7.4651    0.7874  H 0  0  0  1  0  1
   20.4647   -4.5899    1.9093  H 0  0  0  1  0  1
   18.8723   -2.7604    1.3857  H 0  0  0  1  0  1
  1  2  4  0  0  1
  1  7  4  0  0  1
  2  3  1  0  0  2
  2  4  4  0  0  1
  4  5  4  0  0  1
  5  6  4  0  0  1
  6  7  4  0  0  1
  6 25  1  0  0  1
  7  8  1  0  0  1
  8  9  1  0  0  1
  9 10  1  0  0  2
  9 25  2  0  0  1
 10 11  2  0  0  2
 10 12  1  0  0  2
 12 13  1  0  0  1
 12 24  1  0  0  1
 13 14  1  0  0  1
 14 15  1  0  0  2
 14 23  1  0  0  1
 15 16  1  0  0  2
 15 22  1  0  0  2
 16 17  1  0  0  2
 17 18  1  0  0  2
 18 19  1  0  0  2
 19 20  1  0  0  2
 19 21  1  0  0  2
 23 24  1  0  0  1
 25 26  1  0  0  2
 26 27  2  0  0  1
 26 36  1  0  0  1
 27 28  1  0  0  2
 27 34  1  0  0  1
 28 29  4  0  0  1
 28 33  4  0  0  1
 29 30  4  0  0  1
 30 31  4  0  0  1
 31 32  4  0  0  1
 32 33  4  0  0  1
 34 35  2  0  0  1
 35 36  1  0  0  1
 36 37  1  0  0  2
 37 38  1  0  0  2
 38 39  4  0  0  1
 38 44  4  0  0  1
 39 40  4  0  0  1
 40 41  4  0  0  1
 41 42  1  0  0  2
 41 43  4  0  0  1
 43 44  4  0  0  1
  1 45  1  0  0  2
  4 46  1  0  0  2
  5 47  1  0  0  2
  8 48  1  0  0  2
 13 49  1  0  0  2
 13 50  1  0  0  2
 14 51  1  0  0  2
 15 52  1  0  0  2
 16 53  1  0  0  2
 16 54  1  0  0  2
 17 55  1  0  0  2
 17 56  1  0  0  2
 18 57  1  0  0  2
 18 58  1  0  0  2
 19 59  1  0  0  2
 20 60  1  0  0  2
 20 61  1  0  0  2
 20 62  1  0  0  2
 21 63  1  0  0  2
 21 64  1  0  0  2
 21 65  1  0  0  2
 22 66  1  0  0  2
 22 67  1  0  0  2
 22 68  1  0  0  2
 23 69  1  0  0  2
 23 70  1  0  0  2
 24 71  1  0  0  2
 24 72  1  0  0  2
 29 73  1  0  0  2
 30 74  1  0  0  2
 31 75  1  0  0  2
 32 76  1  0  0  2
 33 77  1  0  0  2
 35 78  1  0  0  2
 37 79  1  0  0  2
 37 80  1  0  0  2
 39 81  1  0  0  2
 40 82  1  0  0  2
 43 83  1  0  0  2
 44 84  1  0  0  2
M  END
> <MOLECULAR_FORMULA>
C35H40N6OCl2

> <MOLECULAR_WEIGHT>
631.3

> <NUM_HB_ATOMS>
6  

> <NUM_ROTOR>
7  

> <XLOGP2>
7.02 

$$$$
