2ypp_ligand

Created by X-TOOL on Fri Sep 26 17:34:58 2014
 24 24  0  0  0  0  0  0  0  0999 V2000
   92.9520  -38.7030  -18.4690  N 0  3  0  4  0  4
   93.3150  -40.0780  -18.9820  C 0  0  0  2  0  4
   93.6010  -41.0200  -17.7660  C 0  5  0  1  0  3
   93.8150  -40.5520  -16.6500  O 0  0  0  1  0  1
   94.5600  -39.9780  -19.8060  C 0  0  0  3  0  4
   95.8200  -39.4520  -19.0930  C 0  0  0  1  0  3
   95.9870  -38.1090  -18.8050  C 0  0  0  2  0  3
   96.8920  -40.2570  -18.9320  C 0  0  0  2  0  3
   97.1520  -37.6190  -18.2350  C 0  0  0  2  0  3
   98.0590  -39.7960  -18.3680  C 0  0  0  2  0  3
   98.1850  -38.4840  -18.0220  C 0  0  0  1  0  3
   99.4000  -38.0930  -17.5320  O 0  0  0  2  0  2
   93.5430  -42.2440  -17.9420  O 0  0  0  1  0  1
   92.7666  -38.0916  -19.2487  H 0  0  0  1  0  1
   93.7175  -38.3336  -17.9271  H 0  0  0  1  0  1
   92.1299  -38.7669  -17.8893  H 0  0  0  1  0  1
   92.4913  -40.4827  -19.5883  H 0  0  0  1  0  1
   94.3485  -39.3044  -20.6495  H 0  0  0  1  0  1
   94.7886  -40.9838  -20.1883  H 0  0  0  1  0  1
   95.1824  -37.4189  -19.0320  H 0  0  0  1  0  1
   96.8317  -41.2901  -19.2545  H 0  0  0  1  0  1
   97.2399  -36.5729  -17.9649  H 0  0  0  1  0  1
   98.8826  -40.4800  -18.1979  H 0  0  0  1  0  1
   99.3735  -37.1661  -17.3255  H 0  0  0  1  0  1
  1  2  1  0  0  2
  2  3  1  0  0  2
  2  5  1  0  0  2
  3  4  2  0  0  2
  3 13  2  0  0  2
  5  6  1  0  0  2
  6  7  4  0  0  1
  6  8  4  0  0  1
  7  9  4  0  0  1
  8 10  4  0  0  1
  9 11  4  0  0  1
 10 11  4  0  0  1
 11 12  1  0  0  2
  1 14  1  0  0  2
  1 15  1  0  0  2
  1 16  1  0  0  2
  2 17  1  0  0  2
  5 18  1  0  0  2
  5 19  1  0  0  2
  7 20  1  0  0  2
  8 21  1  0  0  2
  9 22  1  0  0  2
 10 23  1  0  0  2
 12 24  1  0  0  2
M  END
> <MOLECULAR_FORMULA>
C9H11NO3

> <MOLECULAR_WEIGHT>
181.1

> <NUM_HB_ATOMS>
4  

> <NUM_ROTOR>
2  

> <XLOGP2>
-1.68

$$$$
