3fk1_ligand

Created by X-TOOL on Fri Sep 26 17:34:43 2014
 16 15  0  0  0  0  0  0  0  0999 V2000
   60.1760    7.9310   28.2330  C 0  0  0  3  0  4
   60.4590    7.9900   30.6950  C 0  0  0  3  0  4
   60.9730    8.8470   31.7490  C 0  5  0  1  0  3
   60.6310   10.2720   27.1240  O 0  0  0  1  0  1
   59.5320    8.3940   25.8470  O 0  0  0  1  0  1
   62.0050    8.2870   26.4600  O 0  0  0  1  0  1
   61.5270    9.9790   31.4260  O 0  0  0  1  0  1
   60.6030    8.7900   26.8280  P 0  0  0  1  0  4
   60.8270    8.4300   32.8680  O 0  0  0  1  0  1
   60.7100    8.5820   29.3970  N 0  3  0  3  0  4
   60.5801    6.9098   28.1709  H 0  0  0  1  0  1
   59.0798    7.8873   28.3125  H 0  0  0  1  0  1
   59.3753    7.8589   30.8303  H 0  0  0  1  0  1
   60.9565    7.0104   30.7491  H 0  0  0  1  0  1
   60.3299    9.5153   29.4169  H 0  0  0  1  0  1
   61.7100    8.6289   29.2795  H 0  0  0  1  0  1
  1  8  1  0  0  2
 10  1  1  0  0  2
  2  3  1  0  0  2
  2 10  1  0  0  2
  3  7  2  0  0  2
  3  9  2  0  0  2
  8  4  2  0  0  2
  8  5  2  0  0  2
  8  6  2  0  0  2
  1 11  1  0  0  2
  1 12  1  0  0  2
  2 13  1  0  0  2
  2 14  1  0  0  2
 10 15  1  0  0  2
 10 16  1  0  0  2
M  END
> <MOLECULAR_FORMULA>
C3H6NO5P

> <MOLECULAR_WEIGHT>
167.0

> <NUM_HB_ATOMS>
6  

> <NUM_ROTOR>
2  

> <XLOGP2>
-3.86

$$$$
