4qxr_ligand

Created by X-TOOL on Sat Nov 28 16:09:55 2015
 34 36  0  0  0  0  0  0  0  0999 V2000
  113.4620  -38.0190  -10.5590  O 0  0  0  1  0  1
  113.3970  -39.1770  -10.1660  C 0  0  0  1  0  3
  113.5800  -40.2490  -11.0220  C 0  0  0  1  0  3
  113.8550  -40.0350  -12.3690  C 0  0  0  2  0  3
  114.0570  -41.1340  -13.1960  C 0  0  0  2  0  3
  113.9820  -42.4360  -12.6890  C 0  0  0  1  0  3
  114.1830  -43.5370  -13.5180  C 0  0  0  4  0  4
  113.7100  -42.6440  -11.3360  C 0  0  0  1  0  3
  113.6220  -43.9060  -10.7500  C 0  0  0  4  0  4
  113.4990  -41.5530  -10.5320  C 0  0  0  1  0  3
  113.2670  -41.8280   -9.2350  O 0  0  0  1  0  2
  113.1120  -40.7930   -8.3730  C 0  0  0  1  0  3
  113.1910  -39.4660   -8.8350  C 0  0  0  1  0  3
  113.0480  -38.4230   -7.9300  C 0  0  0  2  0  3
  112.8180  -38.7230   -6.5950  C 0  0  0  2  0  3
  112.7410  -40.0420   -6.1500  C 0  0  0  2  0  3
  112.8790  -41.1000   -7.0400  C 0  0  0  1  0  3
  112.7920  -42.4150   -6.5690  C 0  0  0  3  0  4
  114.0020  -43.3310   -6.8580  C 0  5  0  1  0  3
  113.7970  -44.5590   -6.7130  O 0  0  0  1  0  1
  115.0830  -42.7980   -7.2020  O 0  0  0  1  0  1
  113.9108  -39.0282  -12.7669  H 0  0  0  1  0  1
  114.2753  -40.9804  -14.2466  H 0  0  0  1  0  1
  114.3838  -43.1923  -14.5431  H 0  0  0  1  0  1
  113.2825  -44.1687  -13.5135  H 0  0  0  1  0  1
  115.0414  -44.1195  -13.1523  H 0  0  0  1  0  1
  113.8132  -44.6775  -11.5104  H 0  0  0  1  0  1
  112.6148  -44.0462  -10.3307  H 0  0  0  1  0  1
  114.3686  -43.9901   -9.9466  H 0  0  0  1  0  1
  113.1148  -37.3927   -8.2604  H 0  0  0  1  0  1
  112.6956  -37.9148   -5.8830  H 0  0  0  1  0  1
  112.5717  -40.2443   -5.0986  H 0  0  0  1  0  1
  111.9057  -42.8769   -7.0285  H 0  0  0  1  0  1
  112.6587  -42.3713   -5.4780  H 0  0  0  1  0  1
  1  2  2  0  0  2
  2  3  1  0  0  1
  2 13  1  0  0  1
  3  4  4  0  0  1
  3 10  4  0  0  1
  4  5  4  0  0  1
  5  6  4  0  0  1
  6  7  1  0  0  2
  6  8  4  0  0  1
  8  9  1  0  0  2
  8 10  4  0  0  1
 10 11  1  0  0  1
 11 12  1  0  0  1
 12 13  4  0  0  1
 12 17  4  0  0  1
 13 14  4  0  0  1
 14 15  4  0  0  1
 15 16  4  0  0  1
 16 17  4  0  0  1
 17 18  1  0  0  2
 18 19  1  0  0  2
 19 20  2  0  0  2
 19 21  2  0  0  2
  4 22  1  0  0  2
  5 23  1  0  0  2
  7 24  1  0  0  2
  7 25  1  0  0  2
  7 26  1  0  0  2
  9 27  1  0  0  2
  9 28  1  0  0  2
  9 29  1  0  0  2
 14 30  1  0  0  2
 15 31  1  0  0  2
 16 32  1  0  0  2
 18 33  1  0  0  2
 18 34  1  0  0  2
M  END
> <MOLECULAR_FORMULA>
C17H13O4

> <MOLECULAR_WEIGHT>
281.2

> <NUM_HB_ATOMS>
4  

> <NUM_ROTOR>
1  

> <XLOGP2>
2.97 

$$$$
