2pyi_ligand

Created by X-TOOL on Fri Sep 26 17:34:41 2014
 46 48  0  0  0  0  0  0  0  0999 V2000
   37.4770   27.0690   34.3710  C 0  0  0  2  0  3
   38.1450   28.0950   35.0410  C 0  0  0  2  0  3
   39.0830   28.8750   34.3640  C 0  0  0  2  0  3
   39.3580   28.6220   33.0220  C 0  0  0  2  0  3
   38.6930   27.5940   32.3550  C 0  0  0  2  0  3
   37.7500   26.8160   33.0250  C 0  0  0  1  0  3
   37.0850   25.7900   32.3560  C 0  0  0  1  0  3
   37.3360   25.3420   31.1320  C 0  0  0  2  0  3
   36.0660   25.0610   32.8160  N 0  0  0  1  0  2
   35.7310   24.2410   31.9510  N 0  0  0  1  0  2
   36.4450   24.3770   30.9500  N 0  0  0  1  0  3
   36.3560   23.5880   29.7090  C 0  0  0  3  0  4
   34.9140   23.4540   29.1880  C 0  0  0  1  0  3
   33.9420   23.8780   29.8180  O 0  0  0  1  0  1
   34.8340   22.8440   28.0080  N 0  0  0  2  0  3
   33.5360   22.5910   27.3500  C 0  0  0  2  0  4
   33.2770   21.1790   27.5850  O 0  0  0  1  0  2
   32.0530   20.7010   26.9910  C 0  0  0  2  0  4
   31.8630   19.2380   27.4150  C 0  0  0  3  0  4
   32.9520   18.4460   26.9080  O 0  0  0  2  0  2
   32.1620   20.8690   25.4610  C 0  0  0  2  0  4
   30.9800   20.3750   24.8180  O 0  0  0  2  0  2
   32.4050   22.3470   25.0950  C 0  0  0  2  0  4
   32.6380   22.4610   23.6870  O 0  0  0  2  0  2
   33.6220   22.9060   25.8500  C 0  0  0  2  0  4
   33.7330   24.3210   25.6610  O 0  0  0  2  0  2
   36.7445   26.4671   34.8966  H 0  0  0  1  0  1
   37.9351   28.2858   36.0872  H 0  0  0  1  0  1
   39.5971   29.6768   34.8816  H 0  0  0  1  0  1
   40.0895   29.2248   32.4960  H 0  0  0  1  0  1
   38.9101   27.3989   31.3110  H 0  0  0  1  0  1
   38.0991   25.6879   30.4364  H 0  0  0  1  0  1
   36.7540   22.5812   29.9036  H 0  0  0  1  0  1
   36.9645   24.0798   28.9358  H 0  0  0  1  0  1
   35.6751   22.5490   27.5546  H 0  0  0  1  0  1
   32.7455   23.2064   27.8042  H 0  0  0  1  0  1
   31.2017   21.2941   27.3563  H 0  0  0  1  0  1
   30.9138   18.8588   27.0086  H 0  0  0  1  0  1
   31.8434   19.1741   28.5130  H 0  0  0  1  0  1
   33.7713   18.7742   27.2596  H 0  0  0  1  0  1
   33.0207   20.2794   25.1075  H 0  0  0  1  0  1
   31.0625   20.4854   23.8780  H 0  0  0  1  0  1
   31.5142   22.9330   25.3653  H 0  0  0  1  0  1
   31.8794   22.1388   23.2145  H 0  0  0  1  0  1
   34.5264   22.4280   25.4455  H 0  0  0  1  0  1
   33.8340   24.5087   24.7352  H 0  0  0  1  0  1
  1  2  4  0  0  1
  1  6  4  0  0  1
  2  3  4  0  0  1
  3  4  4  0  0  1
  4  5  4  0  0  1
  5  6  4  0  0  1
  6  7  1  0  0  2
  7  8  2  0  0  1
  7  9  1  0  0  1
  8 11  1  0  0  1
  9 10  2  0  0  1
 10 11  1  0  0  1
 11 12  1  0  0  2
 12 13  1  0  0  2
 13 14  2  0  0  2
 13 15  1  0  0  2
 15 16  1  0  0  2
 16 17  1  0  0  1
 16 25  1  0  0  1
 17 18  1  0  0  1
 18 19  1  0  0  2
 18 21  1  0  0  1
 19 20  1  0  0  2
 21 22  1  0  0  2
 21 23  1  0  0  1
 23 24  1  0  0  2
 23 25  1  0  0  1
 25 26  1  0  0  2
  1 27  1  0  0  2
  2 28  1  0  0  2
  3 29  1  0  0  2
  4 30  1  0  0  2
  5 31  1  0  0  2
  8 32  1  0  0  2
 12 33  1  0  0  2
 12 34  1  0  0  2
 15 35  1  0  0  2
 16 36  1  0  0  2
 18 37  1  0  0  2
 19 38  1  0  0  2
 19 39  1  0  0  2
 20 40  1  0  0  2
 21 41  1  0  0  2
 22 42  1  0  0  2
 23 43  1  0  0  2
 24 44  1  0  0  2
 25 45  1  0  0  2
 26 46  1  0  0  2
M  END
> <MOLECULAR_FORMULA>
C16H20N4O6

> <MOLECULAR_WEIGHT>
364.2

> <NUM_HB_ATOMS>
10 

> <NUM_ROTOR>
4  

> <XLOGP2>
-1.46

$$$$
